REMARK  Name = KSR_MEK_Tram_ligand.pdb
REMARK  3 active torsions:
REMARK  status: ('A' for Active; 'I' for Inactive)
REMARK    1  A    between atoms: N3_21  and  C24_35
REMARK    2  A    between atoms: N4_24  and  C16_25
REMARK    3  A    between atoms: C20_29  and  N5_31
REMARK                            x       y       z     vdW  Elec       q    Type
REMARK                         _______ _______ _______ _____ _____    ______ ____
ROOT
ATOM      1  C1  LIG B   0       6.730 -15.317   7.255  0.00  0.00    +0.037 C 
ATOM      2  C2  LIG B   0       5.777 -14.525   7.953  0.00  0.00    +0.049 A 
ATOM      3  C3  LIG B   0       5.026 -13.516   7.427  0.00  0.00    +0.067 A 
ATOM      4  C4  LIG B   0       4.215 -12.754   8.230  0.00  0.00    +0.098 A 
ATOM      5  C5  LIG B   0       4.048 -13.042   9.572  0.00  0.00    +0.152 A 
ATOM      6  N1  LIG B   0       4.770 -14.055  10.094  0.00  0.00    -0.279 N 
ATOM      7  C6  LIG B   0       5.615 -14.790   9.307  0.00  0.00    +0.259 A 
ATOM      8  O1  LIG B   0       6.263 -15.633   9.767  0.00  0.00    -0.267 OA
ATOM      9  C7  LIG B   0       4.598 -14.341  11.448  0.00  0.00    +0.135 C 
ATOM     10  N2  LIG B   0       3.224 -12.368  10.415  0.00  0.00    -0.223 NA
ATOM     11  C8  LIG B   0       2.536 -11.349  10.095  0.00  0.00    +0.145 A 
ATOM     12  C9  LIG B   0       3.016 -10.140  10.533  0.00  0.00    +0.161 A 
ATOM     13  C10 LIG B   0       2.469  -8.984  10.003  0.00  0.00    +0.037 A 
ATOM     14  C11 LIG B   0       1.423  -9.108   9.119  0.00  0.00    +0.035 A 
ATOM     15  C12 LIG B   0       0.895 -10.316   8.698  0.00  0.00    +0.045 A 
ATOM     16  C13 LIG B   0       1.454 -11.479   9.193  0.00  0.00    +0.167 A 
ATOM     17  I1  LIG B   0       0.724  -7.426   8.330  0.00  0.00    -0.042 I 
ATOM     18  F1  LIG B   0       4.050 -10.044  11.371  0.00  0.00    -0.202 F 
ATOM     19  C14 LIG B   0       3.568 -11.650   7.651  0.00  0.00    +0.210 C 
ATOM     20  O2  LIG B   0       2.888 -10.920   8.309  0.00  0.00    -0.438 OA
ATOM     21  N3  LIG B   0       3.725 -11.334   6.340  0.00  0.00    -0.215 N 
ATOM     22  C15 LIG B   0       4.479 -12.123   5.562  0.00  0.00    +0.321 C 
ATOM     23  O3  LIG B   0       4.630 -11.826   4.397  0.00  0.00    -0.251 OA
ATOM     24  N4  LIG B   0       5.059 -13.217   6.071  0.00  0.00    -0.221 N 
ENDROOT
BRANCH  24  25
ATOM     25  C16 LIG B   0       5.641 -14.076   5.189  0.00  0.00    +0.061 A 
ATOM     26  C17 LIG B   0       4.849 -15.129   4.727  0.00  0.00    +0.015 A 
ATOM     27  C18 LIG B   0       5.507 -15.975   3.870  0.00  0.00    +0.003 A 
ATOM     28  C19 LIG B   0       6.820 -15.754   3.508  0.00  0.00    +0.017 A 
ATOM     29  C20 LIG B   0       7.545 -14.691   4.002  0.00  0.00    +0.075 A 
ATOM     30  C21 LIG B   0       6.953 -13.823   4.855  0.00  0.00    +0.032 A 
BRANCH  29  31
ATOM     31  N5  LIG B   0       8.814 -14.358   3.722  0.00  0.00    -0.179 NA
ATOM     32  C22 LIG B   0       9.701 -15.060   3.203  0.00  0.00    +0.246 C 
ATOM     33  O4  LIG B   0       9.500 -16.121   2.838  0.00  0.00    -0.273 OA
ATOM     34  C23 LIG B   0      10.980 -14.479   3.072  0.00  0.00    +0.097 C 
ENDBRANCH  29  31
ENDBRANCH  24  25
BRANCH  21  35
ATOM     35  C24 LIG B   0       3.116 -10.088   5.738  0.00  0.00    +0.084 C 
ATOM     36  C25 LIG B   0       2.455 -10.136   4.590  0.00  0.00    +0.022 C 
ATOM     37  C26 LIG B   0       1.689 -10.178   5.555  0.00  0.00    +0.022 C 
ENDBRANCH  21  35
TORSDOF 3
