REMARK  Name = KSR_Tram_ligand.pdb
REMARK  8 active torsions:
REMARK  status: ('A' for Active; 'I' for Inactive)
REMARK    1  A    between atoms: C1_1  and  C2_2
REMARK    2  A    between atoms: C5_5  and  N2_10
REMARK    3  A    between atoms: N1_6  and  C7_9
REMARK    4  A    between atoms: N2_10  and  C8_11
REMARK    5  A    between atoms: N3_21  and  C24_35
REMARK    6  A    between atoms: N4_24  and  C16_25
REMARK    7  A    between atoms: C20_29  and  N5_31
REMARK    8  A    between atoms: C22_32  and  C23_34
REMARK                            x       y       z     vdW  Elec       q    Type
REMARK                         _______ _______ _______ _____ _____    ______ ____
ROOT
ATOM      1  C1  LIG A   0       5.851  13.077  15.170  0.00  0.00    +0.000 C 
ATOM      2  C2  LIG A   0       5.714  12.294  13.922  0.00  0.00    +0.000 A 
ATOM      3  C3  LIG A   0       5.207  10.972  13.783  0.00  0.00    +0.000 A 
ATOM      4  C4  LIG A   0       5.244  10.339  12.502  0.00  0.00    +0.000 A 
ATOM      5  C5  LIG A   0       5.696  11.058  11.356  0.00  0.00    +0.000 A 
ATOM      6  N1  LIG A   0       6.144  12.381  11.519  0.00  0.00    +0.000 N 
ATOM      7  C6  LIG A   0       6.162  12.993  12.736  0.00  0.00    +0.000 A 
ATOM      8  O1  LIG A   0       6.593  14.180  12.830  0.00  0.00    +0.000 OA
ATOM      9  C7  LIG A   0       6.505  13.125  10.349  0.00  0.00    +0.000 C 
ATOM     10  C14 LIG A   0       4.798   8.958  12.358  0.00  0.00    +0.000 A 
ATOM     11  O2  LIG A   0       4.825   8.370  11.260  0.00  0.00    +0.000 OA
ATOM     12  N3  LIG A   0       4.334   8.277  13.447  0.00  0.00    +0.000 N 
ATOM     13  C15 LIG A   0       4.249   8.906  14.681  0.00  0.00    +0.000 A 
ATOM     14  O3  LIG A   0       3.806   8.263  15.629  0.00  0.00    +0.000 OA
ATOM     15  N4  LIG A   0       4.636  10.241  14.853  0.00  0.00    +0.000 N 
ENDROOT
BRANCH  15  16
ATOM     16  C16 LIG A   0       4.289  10.807  16.080  0.00  0.00    +0.000 A 
ATOM     17  C17 LIG A   0       3.142  11.636  16.090  0.00  0.00    +0.000 A 
ATOM     18  C18 LIG A   0       2.807  12.179  17.314  0.00  0.00    +0.000 A 
ATOM     19  C19 LIG A   0       3.517  11.857  18.483  0.00  0.00    +0.000 A 
ATOM     20  C20 LIG A   0       4.591  10.949  18.423  0.00  0.00    +0.000 A 
ATOM     21  C21 LIG A   0       4.980  10.421  17.218  0.00  0.00    +0.000 A 
BRANCH  20  22
ATOM     22  N5  LIG A   0       5.284  10.506  19.512  0.00  0.00    +0.000 N 
ATOM     23  C22 LIG A   0       4.746  10.150  20.694  0.00  0.00    +0.000 C 
ATOM     24  O4  LIG A   0       3.559  10.172  20.871  0.00  0.00    +0.000 OA
ATOM     25  C23 LIG A   0       5.687   9.668  21.732  0.00  0.00    +0.000 C 
ATOM     26  H   LIG A   0       6.263  10.441  19.426  0.00  0.00    +0.000 HD
ENDBRANCH  20  22
ENDBRANCH  15  16
BRANCH  12  27
ATOM     27  C24 LIG A   0       3.864   6.840  13.294  0.00  0.00    +0.000 C 
ATOM     28  C25 LIG A   0       4.892   5.882  12.870  0.00  0.00    +0.000 C 
ATOM     29  C26 LIG A   0       4.557   5.867  14.110  0.00  0.00    +0.000 C 
ENDBRANCH  12  27
BRANCH   5  30
ATOM     30  N2  LIG A   0       5.660  10.508  10.165  0.00  0.00    +0.000 N 
ATOM     31  H   LIG A   0       4.753  10.186   9.960  0.00  0.00    +0.000 HD
BRANCH  30  32
ATOM     32  C8  LIG A   0       6.488  10.256   9.150  0.00  0.00    +0.000 A 
ATOM     33  C9  LIG A   0       7.871  10.213   9.243  0.00  0.00    +0.000 A 
ATOM     34  C10 LIG A   0       8.656   9.918   8.159  0.00  0.00    +0.000 A 
ATOM     35  C11 LIG A   0       7.994   9.642   6.999  0.00  0.00    +0.000 A 
ATOM     36  C12 LIG A   0       6.651   9.672   6.889  0.00  0.00    +0.000 A 
ATOM     37  C13 LIG A   0       5.882   9.964   7.971  0.00  0.00    +0.000 A 
ATOM     38  I1  LIG A   0       9.055   9.178   5.392  0.00  0.00    +0.000 I 
ATOM     39  F1  LIG A   0       8.470  10.452  10.398  0.00  0.00    +0.000 F 
ENDBRANCH  30  32
ENDBRANCH   5  30
TORSDOF 5
