REMARK  Name = MEK_Tram_ligand.pdb
REMARK  5 active torsions:
REMARK  status: ('A' for Active; 'I' for Inactive)
REMARK    1  A    between atoms: C5_5  and  N2_10
REMARK    2  A    between atoms: N2_10  and  C8_11
REMARK    3  A    between atoms: N3_21  and  C24_35
REMARK    4  A    between atoms: N4_24  and  C16_25
REMARK    5  A    between atoms: C20_29  and  N5_31
REMARK                            x       y       z     vdW  Elec       q    Type
REMARK                         _______ _______ _______ _____ _____    ______ ____
ROOT
ATOM      1  C1  LIG B   0       3.447  -1.968  -4.585  0.00  0.00    +0.038 C 
ATOM      2  C2  LIG B   0       2.275  -2.769  -4.945  0.00  0.00    +0.051 A 
ATOM      3  C3  LIG B   0       2.005  -4.117  -4.596  0.00  0.00    +0.076 A 
ATOM      4  C4  LIG B   0       0.880  -4.769  -5.104  0.00  0.00    +0.104 A 
ATOM      5  C5  LIG B   0      -0.013  -4.040  -5.923  0.00  0.00    +0.141 A 
ATOM      6  N1  LIG B   0       0.225  -2.715  -6.219  0.00  0.00    -0.281 N 
ATOM      7  C6  LIG B   0       1.326  -2.071  -5.771  0.00  0.00    +0.259 A 
ATOM      8  O1  LIG B   0       1.495  -0.847  -6.094  0.00  0.00    -0.267 OA
ATOM      9  C7  LIG B   0      -0.717  -1.983  -7.027  0.00  0.00    +0.135 C 
ATOM     10  C14 LIG B   0       0.638  -6.158  -4.790  0.00  0.00    +0.268 A 
ATOM     11  O2  LIG B   0      -0.341  -6.764  -5.192  0.00  0.00    -0.267 OA
ATOM     12  N3  LIG B   0       1.514  -6.838  -3.997  0.00  0.00    -0.250 N 
ATOM     13  C15 LIG B   0       2.595  -6.203  -3.465  0.00  0.00    +0.338 A 
ATOM     14  O3  LIG B   0       3.361  -6.836  -2.755  0.00  0.00    -0.246 OA
ATOM     15  N4  LIG B   0       2.828  -4.881  -3.728  0.00  0.00    -0.260 N 
ENDROOT
BRANCH  15  16
ATOM     16  C16 LIG B   0       3.878  -4.351  -3.006  0.00  0.00    +0.069 A 
ATOM     17  C17 LIG B   0       3.575  -3.723  -1.774  0.00  0.00    +0.018 A 
ATOM     18  C18 LIG B   0       4.667  -3.217  -1.086  0.00  0.00    +0.003 A 
ATOM     19  C19 LIG B   0       5.951  -3.365  -1.574  0.00  0.00    +0.017 A 
ATOM     20  C20 LIG B   0       6.201  -4.003  -2.781  0.00  0.00    +0.075 A 
ATOM     21  C21 LIG B   0       5.177  -4.526  -3.519  0.00  0.00    +0.034 A 
BRANCH  20  22
ATOM     22  N5  LIG B   0       7.412  -4.195  -3.332  0.00  0.00    -0.179 NA
ATOM     23  C22 LIG B   0       8.549  -4.298  -2.714  0.00  0.00    +0.246 C 
ATOM     24  O4  LIG B   0       8.605  -4.282  -1.510  0.00  0.00    -0.273 OA
ATOM     25  C23 LIG B   0       9.751  -4.512  -3.517  0.00  0.00    +0.097 C 
ENDBRANCH  20  22
ENDBRANCH  15  16
BRANCH  12  26
ATOM     26  C24 LIG B   0       1.234  -8.261  -3.692  0.00  0.00    +0.093 C 
ATOM     27  C25 LIG B   0       2.055  -9.165  -4.613  0.00  0.00    +0.025 C 
ATOM     28  C26 LIG B   0       2.053  -9.173  -3.200  0.00  0.00    +0.025 C 
ENDBRANCH  12  26
BRANCH   5  29
ATOM     29  N2  LIG B   0      -1.045  -4.554  -6.435  0.00  0.00    -0.193 NA
BRANCH  29  30
ATOM     30  C8  LIG B   0      -2.103  -5.203  -6.597  0.00  0.00    +0.099 A 
ATOM     31  C9  LIG B   0      -3.118  -5.172  -5.647  0.00  0.00    +0.156 A 
ATOM     32  C10 LIG B   0      -4.210  -5.889  -5.839  0.00  0.00    +0.037 A 
ATOM     33  C11 LIG B   0      -4.297  -6.601  -6.969  0.00  0.00    +0.032 A 
ATOM     34  C12 LIG B   0      -3.339  -6.663  -7.907  0.00  0.00    +0.007 A 
ATOM     35  C13 LIG B   0      -2.222  -5.963  -7.720  0.00  0.00    +0.019 A 
ATOM     36  I1  LIG B   0      -5.914  -7.690  -7.325  0.00  0.00    -0.042 I 
ATOM     37  F1  LIG B   0      -2.949  -4.442  -4.532  0.00  0.00    -0.203 F 
ENDBRANCH  29  30
ENDBRANCH   5  29
TORSDOF 5
